   24
sisl-version=1 cell= 25.92000000 0.00000000 0.00000000 0.00000000 2.49415316 0.00000000 0.00000000 0.00000000 14.40000000  nsc= 3 3 1
C   0.00000000  0.00000000  0.00000000
C   0.72000000  1.24707658  0.00000000
C   2.16000000  1.24707658  0.00000000
C   2.88000000  0.00000000  0.00000000
C   4.32000000  0.00000000  0.00000000
C   5.04000000  1.24707658  0.00000000
C   6.48000000  1.24707658  0.00000000
C   7.20000000  0.00000000  0.00000000
C   8.64000000  0.00000000  0.00000000
C   9.36000000  1.24707658  0.00000000
C   10.80000000  1.24707658  0.00000000
C   11.52000000  0.00000000  0.00000000
C   12.96000000  0.00000000  0.00000000
C   13.68000000  1.24707658  0.00000000
C   15.12000000  1.24707658  0.00000000
C   15.84000000  0.00000000  0.00000000
C   17.28000000  0.00000000  0.00000000
C   18.00000000  1.24707658  0.00000000
C   19.44000000  1.24707658  0.00000000
C   20.16000000  0.00000000  0.00000000
C   21.60000000  0.00000000  0.00000000
C   22.32000000  1.24707658  0.00000000
C   23.76000000  1.24707658  0.00000000
C   24.48000000  0.00000000  0.00000000
